23
        -462.403523348483
  C   -3.19821321103362     -1.10319470090908     -0.86814610689801
  H   -2.57408111619988     -1.80944595515844     -1.44138711121492
  H   -3.71928191128009     -1.67119201005988     -0.07874356524288
  H   -3.94311706791355     -0.66456712272740     -1.53829515282219
  O   -2.43705354709626     -0.04296408882132     -0.33622860417636
  C   -1.41754846004584     -0.49016394711808      0.53475662983745
  H   -1.84438590511244     -1.04534079045438      1.39048524293468
  H   -0.73474469982685     -1.18049789149570      0.01486147459327
  C   -0.65808578245710      0.70784443007245      1.09112631798401
  H   0.12032248288557      0.32557593931682      1.76679772491798
  H   -1.34712311942730      1.33105755034423      1.67073191746749
  O   -0.11030895779382      1.59633331885470      0.12499459496004
  C   0.71295037558332      1.05055533163255     -0.88774504722039
  H   0.20087518978802      0.25128917004193     -1.44226662074326
  H   0.88271576869161      1.87870637450415     -1.58564999537304
  C   2.07189725302322      0.54703564260621     -0.41439983772678
  H   2.74046962078727      0.43756934920584     -1.28768640525940
  H   2.52495487086848      1.28981471566869      0.26369010311903
  O   1.92390120036732     -0.70226971181403      0.24106927958548
  C   3.14802458873502     -1.22185021310940      0.71453557884056
  H   3.86258011027634     -1.39059834845094     -0.10798895290887
  H   3.62022286762086     -0.54943630189027      1.44910697642970
  H   2.93026944955970     -2.17875074023866      1.19695155891641
